Version 4
SHEET 1 1204 680
WIRE 656 -80 656 -96
WIRE 688 -80 656 -80
WIRE 656 -64 656 -80
WIRE 752 48 352 48
WIRE 96 96 16 96
WIRE 160 96 96 96
WIRE 208 96 160 96
WIRE 16 112 16 96
WIRE 352 160 352 48
WIRE 400 160 352 160
WIRE 752 160 752 48
WIRE 752 160 624 160
WIRE 752 224 752 160
WIRE 752 224 624 224
WIRE 960 224 752 224
WIRE 1056 240 1024 240
WIRE 960 256 896 256
WIRE 896 272 896 256
WIRE 672 288 624 288
WIRE 752 288 752 224
FLAG 160 160 0
FLAG 96 160 0
FLAG 16 192 0
FLAG 208 96 Vcc
FLAG 624 96 Vcc
FLAG 400 96 0
FLAG 400 288 Vcc
FLAG 400 224 Vout
IOPIN 400 224 Out
FLAG 672 352 0
FLAG 752 352 0
FLAG 992 208 Vcc
FLAG 992 272 0
FLAG 896 352 0
FLAG 1056 240 V_PWM
IOPIN 1056 240 Out
FLAG 656 -176 Vcc
FLAG 656 16 0
FLAG 752 -208 0
SYMBOL voltage 16 96 R0
WINDOW 123 0 0 Left 0
WINDOW 39 0 0 Left 0
SYMATTR InstName V1
SYMATTR Value 5
SYMBOL polcap 80 96 R0
SYMATTR InstName C1
SYMATTR Value 47µ
SYMBOL cap 144 96 R0
SYMATTR InstName C2
SYMATTR Value .1µ
SYMBOL Misc\\LM555 512 192 R0
SYMATTR InstName U1
SYMBOL cap 656 288 R0
SYMATTR InstName C3
SYMATTR Value .1µ
SYMBOL cap 736 288 R0
SYMATTR InstName C4
SYMATTR Value {C}
SYMBOL Misc\\TLV272 992 240 R0
SYMATTR InstName U2
SYMBOL voltage 896 256 R0
WINDOW 123 0 0 Left 0
WINDOW 39 0 0 Left 0
SYMATTR InstName V2
SYMATTR Value SINE(2.4 0.7 10)
SYMBOL pnp 688 -32 M180
SYMATTR InstName Q1
SYMATTR Value 2N2907
SYMBOL res 736 -48 R0
SYMATTR InstName R1
SYMATTR Value 210k
SYMBOL res 640 -80 R0
SYMATTR InstName R2
SYMATTR Value 10k
SYMBOL res 640 -192 R0
SYMATTR InstName R3
SYMATTR Value 39k
SYMBOL voltage 752 -112 R180
WINDOW 0 24 96 Left 2
WINDOW 3 24 16 Left 2
WINDOW 123 0 0 Left 0
WINDOW 39 0 0 Left 0
SYMATTR InstName V3
SYMATTR Value 10
TEXT 416 352 Left 2 !.param C=100n
TEXT 40 256 Left 2 !.tran 0 205m 5m uic
