Version 4
SHEET 1 880 680
WIRE 272 -16 176 -16
WIRE 368 -16 272 -16
WIRE 656 -16 560 -16
WIRE 176 0 176 -16
WIRE 560 0 560 -16
WIRE 272 112 272 64
WIRE 304 112 272 112
WIRE 656 112 656 64
WIRE 688 112 656 112
WIRE 272 160 272 112
WIRE 656 160 656 112
WIRE 368 192 368 160
FLAG 272 240 0
FLAG 176 80 0
FLAG 368 192 Iout
IOPIN 368 192 Out
FLAG 656 240 0
FLAG 560 80 0
FLAG 752 240 0
FLAG 752 64 Iout
IOPIN 752 64 Out
SYMBOL res 256 144 R0
SYMATTR InstName R2
SYMATTR Value 10k
SYMBOL res 256 -32 R0
SYMATTR InstName R3
SYMATTR Value 39k
SYMBOL voltage 176 -16 R0
WINDOW 123 0 0 Left 0
WINDOW 39 0 0 Left 0
SYMATTR InstName V1
SYMATTR Value 5
SYMBOL res 352 -32 R0
SYMATTR InstName R1
SYMATTR Value 330
SYMBOL pnp 304 160 M180
SYMATTR InstName Q1
SYMATTR Value 2N2907
SYMBOL res 640 144 R0
SYMATTR InstName R4
SYMATTR Value 10k
SYMBOL res 640 -32 R0
SYMATTR InstName R5
SYMATTR Value 75.8k
SYMBOL voltage 560 -16 R0
WINDOW 123 0 0 Left 0
WINDOW 39 0 0 Left 0
SYMATTR InstName V2
SYMATTR Value 5
SYMBOL npn 688 64 R0
SYMATTR InstName Q2
SYMATTR Value 2N2222
SYMBOL res 736 144 R0
SYMATTR InstName R6
SYMATTR Value 330
TEXT 144 304 Left 2 !.tran 1
