Version 4
SHEET 1 1000 680
WIRE 368 -96 368 -128
WIRE 400 -96 368 -96
WIRE 528 -96 480 -96
WIRE 560 -96 528 -96
WIRE 304 0 304 -128
WIRE 304 0 208 0
WIRE 720 16 672 16
WIRE 768 16 720 16
WIRE 304 48 304 0
WIRE 368 48 368 -96
WIRE 0 96 0 64
WIRE 80 96 0 96
WIRE 0 112 0 96
WIRE 80 112 80 96
WIRE 720 112 720 80
WIRE 800 112 720 112
WIRE 208 128 208 0
WIRE 672 128 672 16
WIRE 688 128 672 128
WIRE 768 144 768 16
WIRE 768 144 752 144
WIRE 800 176 720 176
WIRE 0 208 0 192
WIRE 80 208 80 176
WIRE 80 208 0 208
WIRE 720 208 720 176
WIRE 0 224 0 208
WIRE 208 304 208 192
WIRE 304 304 304 272
WIRE 304 304 208 304
WIRE 304 368 304 304
FLAG 0 64 12V
FLAG 0 224 0
FLAG 304 -128 12V
FLAG 304 368 0
FLAG 624 -96 0
FLAG 496 -16 0
FLAG 432 48 Conn
FLAG 368 272 Conn
FLAG 720 80 12V
FLAG 720 208 0
FLAG 688 160 Conn
FLAG 432 272 VOUT1
FLAG 720 16 VOUT2
FLAG 496 272 12V
FLAG 368 -208 12V
FLAG 528 -96 Conn
SYMBOL voltage 0 96 R0
WINDOW 123 0 0 Left 0
WINDOW 39 0 0 Left 0
SYMATTR InstName V1
SYMATTR Value 12
SYMBOL cap 64 112 R0
SYMATTR InstName C1
SYMATTR Value 47µ
SYMBOL TLV272 720 144 R0
SYMATTR InstName U1
SYMBOL LM555 400 160 R270
SYMATTR InstName U2
SYMBOL cap 480 -16 R0
SYMATTR InstName C2
SYMATTR Value 1µ
SYMBOL cap 192 128 R0
WINDOW 3 23 57 Left 2
SYMATTR InstName C3
SYMATTR Value 100n
SYMBOL cap 784 112 R0
SYMATTR InstName C4
SYMATTR Value 1µ
SYMBOL res 352 -224 R0
SYMATTR InstName R1
SYMATTR Value 1.1k
SYMBOL res 496 -112 R90
WINDOW 0 0 56 VBottom 2
WINDOW 3 32 56 VTop 2
SYMATTR InstName R2
SYMATTR Value 47k
SYMBOL cap 624 -112 R90
WINDOW 0 0 32 VBottom 2
WINDOW 3 32 32 VTop 2
SYMATTR InstName C5
SYMATTR Value 10n
TEXT -8 344 Left 2 !.tran 20m startup
