Version 4
SHEET 1 968 680
WIRE 112 80 -16 80
WIRE 224 80 112 80
WIRE 336 80 224 80
WIRE 496 80 336 80
WIRE -16 96 -16 80
WIRE 496 192 496 80
WIRE 112 224 112 80
WIRE 112 224 96 224
WIRE 208 224 112 224
WIRE 320 224 288 224
WIRE 352 224 320 224
WIRE 640 224 624 224
WIRE 656 224 640 224
WIRE 352 240 352 224
WIRE 384 240 352 240
WIRE 624 240 624 224
WIRE 624 240 608 240
WIRE 832 256 768 256
WIRE 384 304 352 304
WIRE 624 304 608 304
WIRE 112 320 96 320
WIRE 208 320 112 320
WIRE 320 320 288 320
WIRE 352 320 352 304
WIRE 352 320 320 320
WIRE 624 320 624 304
WIRE 640 320 624 320
WIRE 656 320 640 320
WIRE 832 320 768 320
WIRE 112 400 112 320
WIRE 496 400 496 352
WIRE 496 400 112 400
WIRE 112 416 112 400
FLAG 224 144 0
FLAG 112 416 0
FLAG 832 256 omega
IOPIN 832 256 Out
FLAG 832 320 enc
IOPIN 832 320 Out
FLAG 96 224 o1
IOPIN 96 224 In
FLAG 96 320 o2
IOPIN 96 320 In
FLAG -16 176 0
FLAG 336 80 +10Vdc
FLAG 320 224 b1
FLAG 320 320 b2
FLAG 640 224 dc1
FLAG 640 320 dc2
SYMBOL voltage -16 80 R0
WINDOW 123 0 0 Left 0
WINDOW 39 0 0 Left 0
SYMATTR InstName V1
SYMATTR Value 10
SYMBOL res 304 208 R90
WINDOW 0 0 56 VBottom 2
WINDOW 3 32 56 VTop 2
SYMATTR InstName R1
SYMATTR Value 470
SYMBOL res 304 304 R90
WINDOW 0 0 56 VBottom 2
WINDOW 3 32 56 VTop 2
SYMATTR InstName R2
SYMATTR Value 470
SYMBOL cap 208 80 R0
SYMATTR InstName C1
SYMATTR Value 47µ
SYMBOL MotorDriver 480 256 R0
SYMATTR InstName X1
SYMBOL Misc\\DC_motor_model 704 272 R0
SYMATTR InstName X2
TEXT -50 440 Left 2 !.tran 1
