Version 4
SHEET 1 904 680
WIRE 272 48 -64 48
WIRE 528 48 272 48
WIRE 528 128 528 48
WIRE -64 144 -64 48
WIRE 16 144 -64 144
WIRE 272 144 272 48
WIRE 240 160 176 160
WIRE 704 160 688 160
WIRE -64 176 -64 144
WIRE 416 176 304 176
WIRE 688 176 688 160
WIRE 688 176 640 176
WIRE 240 192 208 192
WIRE 848 192 816 192
WIRE 208 240 208 192
WIRE 672 240 640 240
WIRE 672 256 672 240
WIRE 704 256 672 256
WIRE 848 256 816 256
FLAG -64 256 0
FLAG 272 208 0
FLAG 208 320 0
FLAG 416 240 0
FLAG 528 288 0
FLAG 848 192 w
FLAG 848 256 enc
SYMBOL voltage -64 160 R0
WINDOW 123 0 0 Left 0
WINDOW 39 0 0 Left 0
SYMATTR InstName V1
SYMATTR Value 10
SYMBOL voltage 208 224 R0
SYMATTR InstName V2
SYMATTR Value PWL(150m 1 200m 3 250m 5 300m 7 350m 9)
SYMBOL MotorDriver 512 192 R0
SYMATTR InstName X2
SYMBOL Misc\\DC_motor_model 752 208 R0
SYMATTR InstName X3
SYMBOL Opamps\\TLC3702 272 176 R0
SYMATTR InstName U1
SYMBOL Triangle 96 144 R0
WINDOW 39 0 -12 Bottom 2
SYMATTR SpiceLine C={C}
SYMATTR InstName X1
TEXT -80 304 Left 2 !.tran 0 500m 100m uic
TEXT 0 224 Left 2 !.param C = 100n
