Version 4
SHEET 1 1252 708
WIRE 656 -192 592 -192
WIRE 720 -192 656 -192
WIRE 592 -176 592 -192
WIRE 720 -112 720 -192
WIRE 592 -64 592 -96
WIRE 656 -64 592 -64
WIRE 592 -16 592 -64
WIRE 624 112 112 112
WIRE 720 112 720 64
WIRE 720 112 624 112
WIRE 624 192 624 112
WIRE 512 240 512 224
WIRE 560 240 512 240
WIRE 1008 240 960 240
WIRE 1184 240 1184 208
WIRE 1184 240 1088 240
WIRE 1184 272 1184 240
WIRE 512 288 512 240
WIRE 960 368 960 240
WIRE 1008 368 960 368
WIRE 112 400 112 112
WIRE 176 400 112 400
WIRE 624 400 624 368
WIRE 624 400 400 400
WIRE 1088 416 1088 368
WIRE 960 432 960 368
WIRE 976 432 960 432
WIRE 1088 448 1088 416
WIRE 1088 448 1040 448
WIRE 176 464 144 464
WIRE 720 464 720 112
WIRE 720 464 400 464
WIRE 800 464 720 464
WIRE 928 464 880 464
WIRE 976 464 928 464
WIRE 928 496 928 464
WIRE 480 528 400 528
WIRE 480 560 480 528
WIRE 720 560 720 464
FLAG 480 624 0
FLAG 720 624 0
FLAG 400 336 Vcc
IOPIN 400 336 In
FLAG 176 528 Vcc
FLAG 176 336 0
FLAG 144 464 Vrect
IOPIN 144 464 Out
FLAG 592 64 0
FLAG 656 -192 Vcc
IOPIN 656 -192 In
FLAG 512 368 0
FLAG 512 144 Vcc
IOPIN 512 144 In
FLAG 928 576 0
FLAG 1184 352 0
FLAG 1008 480 0
FLAG 1008 416 Vcc
FLAG 1088 416 Vtri
IOPIN 1088 416 Out
FLAG 1184 128 Vcc
SYMBOL cap 704 560 R0
SYMATTR InstName C3
SYMATTR Value {C}
SYMBOL cap 464 560 R0
SYMATTR InstName C4
SYMATTR Value 100n
SYMBOL Misc\\LM555 288 432 R0
SYMATTR InstName U1
SYMBOL res 576 -192 R0
SYMATTR InstName R1
SYMATTR Value 39k
SYMBOL res 576 -32 R0
SYMATTR InstName R2
SYMATTR Value 10k
SYMBOL res 704 -32 R0
SYMATTR InstName R3
SYMATTR Value 60k
SYMBOL pnp 656 -16 M180
SYMATTR InstName Q1
SYMATTR Value 2N2907
SYMBOL npn 560 192 R0
SYMATTR InstName Q2
SYMBOL res 496 128 R0
SYMATTR InstName R4
SYMATTR Value 39k
SYMBOL res 496 272 R0
SYMATTR InstName R5
SYMATTR Value 10k
SYMBOL res 608 272 R0
SYMATTR InstName R6
SYMATTR Value 5k
SYMBOL res 896 448 R90
WINDOW 0 0 56 VBottom 2
WINDOW 3 32 56 VTop 2
SYMATTR InstName R7
SYMATTR Value 100k
SYMBOL res 944 592 R180
WINDOW 0 36 76 Left 2
WINDOW 3 36 40 Left 2
SYMATTR InstName R8
SYMATTR Value 300k
SYMBOL Misc\\TLV272 1008 448 R0
SYMATTR InstName U3
SYMBOL res 1104 352 R90
WINDOW 0 0 56 VBottom 2
WINDOW 3 32 56 VTop 2
SYMATTR InstName R9
SYMATTR Value 300k
SYMBOL res 1104 224 R90
WINDOW 0 0 56 VBottom 2
WINDOW 3 32 56 VTop 2
SYMATTR InstName R10
SYMATTR Value 100k
SYMBOL res 1168 112 R0
SYMATTR InstName R11
SYMATTR Value 10k
SYMBOL res 1168 256 R0
SYMATTR InstName R12
SYMATTR Value 5k
TEXT 176 624 Left 2 !.tran 0 50m 10m uic
TEXT 184 592 Left 2 !.param C = 100n
