Version 4
SHEET 1 1896 888
WIRE -128 32 -224 32
WIRE -48 32 -128 32
WIRE 32 32 -48 32
WIRE 144 32 32 32
WIRE 272 32 144 32
WIRE 352 32 272 32
WIRE 624 32 352 32
WIRE 720 32 624 32
WIRE 1088 48 1008 48
WIRE 1168 48 1088 48
WIRE 720 80 720 32
WIRE 1008 80 1008 48
WIRE -128 112 -128 96
WIRE -48 112 -48 96
WIRE 32 112 32 96
WIRE 144 112 144 32
WIRE 272 128 272 32
WIRE 624 128 624 32
WIRE 624 128 592 128
WIRE 1168 160 1168 48
WIRE 1008 176 1008 160
WIRE 1136 176 1008 176
WIRE 368 192 272 192
WIRE 720 192 720 160
WIRE 720 192 592 192
WIRE 1264 192 1200 192
WIRE 1136 208 864 208
WIRE 1008 224 1008 176
WIRE 368 256 288 256
WIRE 720 256 720 192
WIRE 720 256 592 256
WIRE 144 272 144 192
WIRE 144 272 112 272
WIRE 208 272 144 272
WIRE 272 272 272 192
WIRE 272 272 208 272
WIRE 640 320 592 320
WIRE 720 320 720 256
WIRE 1264 336 1264 192
WIRE 1264 336 912 336
WIRE 912 400 912 336
WIRE 928 400 912 400
WIRE 1072 400 1008 400
WIRE 1168 400 1072 400
WIRE 288 432 288 256
WIRE 864 432 864 208
WIRE 864 432 288 432
FLAG 48 272 Pulse
IOPIN 48 272 In
FLAG 368 128 0
FLAG 640 384 0
FLAG 720 384 0
FLAG -224 112 0
FLAG -128 112 0
FLAG -48 112 0
FLAG 32 112 0
FLAG 352 32 Vcc
IOPIN 352 32 BiDir
FLAG 368 320 Vcc
FLAG 1168 400 speed
IOPIN 1168 400 Out
FLAG 1072 464 0
FLAG 208 272 trig
FLAG 1008 304 0
FLAG 1168 224 0
FLAG 1088 48 Vcc
SYMBOL cap 112 256 R90
WINDOW 0 0 32 VBottom 2
WINDOW 3 32 32 VTop 2
SYMATTR InstName C1
SYMATTR Value 1n
SYMBOL res 128 96 R0
SYMATTR InstName R1
SYMATTR Value 4k7
SYMBOL diode 288 192 R180
WINDOW 0 24 64 Left 2
WINDOW 3 24 0 Left 2
SYMATTR InstName D1
SYMATTR Value 1N4148
SYMBOL Misc\\LM555 480 224 R0
SYMATTR InstName U1
SYMBOL cap 704 320 R0
SYMATTR InstName C2
SYMATTR Value 10n
SYMBOL cap 1056 400 R0
SYMATTR InstName C3
SYMATTR Value 1µ
SYMBOL cap 624 320 R0
SYMATTR InstName C4
SYMATTR Value .1µ
SYMBOL res 704 64 R0
SYMATTR InstName R2
SYMATTR Value 47k
SYMBOL voltage -224 16 R0
SYMATTR InstName V1
SYMATTR Value 5
SYMBOL cap -64 32 R0
SYMATTR InstName C6
SYMATTR Value 1µ
SYMBOL cap 16 32 R0
SYMATTR InstName C7
SYMATTR Value 1µ
SYMBOL polcap -144 32 R0
SYMATTR InstName C5
SYMATTR Value 47µ
SYMBOL res 1024 384 R90
WINDOW 0 0 56 VBottom 2
WINDOW 3 32 56 VTop 2
SYMATTR InstName R3
SYMATTR Value 10k
SYMBOL res 992 64 R0
SYMATTR InstName R4
SYMATTR Value 22k
SYMBOL res 992 208 R0
SYMATTR InstName R5
SYMATTR Value 22k
SYMBOL Opamps\\TLC3702 1168 192 R0
SYMATTR InstName U2
TEXT 16 408 Left 2 !.tran 150m startup
